examples/Nordic/data/inputs/operating_point_21/Nordic.xiidm
<?xml version="1.0" encoding="UTF-8"?>
<iidm:network xmlns:iidm="http://www.powsybl.org/schema/iidm/1_5" id="Nordic32_corrige" caseDate="2019-07-30T16:39:00+02:00" forecastDistance="0" sourceFormat="NF">
    <iidm:substation id="S_4011" country="FR" tso="RTE">
        <iidm:voltageLevel id="1011_130" nominalV="130" highVoltageLimit="136.5" topologyKind="NODE_BREAKER">
            <iidm:nodeBreakerTopology>
                <iidm:busbarSection id="1011_131" node="0"/>
                <iidm:switch id="Tr1011-4011_disconnector2" kind="DISCONNECTOR" retained="true" open="false" node1="0" node2="1"/>
                <iidm:switch id="Tr1011-4011_breaker2" kind="BREAKER" retained="true" open="false" node1="1" node2="2"/>
                <iidm:switch id="Tr11-1011_disconnector1" kind="DISCONNECTOR" retained="true" open="false" node1="0" node2="3"/>
                <iidm:switch id="Tr11-1011_breaker1" kind="BREAKER" retained="true" open="false" node1="3" node2="4"/>
                <iidm:switch id="L1011-1013a_disconnector1" kind="DISCONNECTOR" retained="true" open="false" node1="0" node2="5"/>
                <iidm:switch id="L1011-1013a_breaker1" kind="BREAKER" retained="true" open="false" node1="5" node2="6"/>
                <iidm:switch id="L1011-1013b_disconnector1" kind="DISCONNECTOR" retained="true" open="false" node1="0" node2="7"/>
                <iidm:switch id="L1011-1013b_breaker1" kind="BREAKER" retained="true" open="false" node1="7" node2="8"/>
                <iidm:bus v="145.57306738872254" angle="33.73943566317984" nodes="0,1,2,3,4,5,6,7,8"/>
            </iidm:nodeBreakerTopology>
        </iidm:voltageLevel>
        <iidm:voltageLevel id="4011_400" nominalV="400" highVoltageLimit="420" topologyKind="NODE_BREAKER">
            <iidm:nodeBreakerTopology>
                <iidm:busbarSection id="4011_401" node="0"/>
                <iidm:switch id="Tr1011-4011_disconnector1" kind="DISCONNECTOR" retained="true" open="false" node1="0" node2="1"/>
                <iidm:switch id="Tr1011-4011_breaker1" kind="BREAKER" retained="true" open="false" node1="1" node2="2"/>
                <iidm:switch id="Tr4011-g9_disconnector1" kind="DISCONNECTOR" retained="true" open="false" node1="0" node2="3"/>
                <iidm:switch id="Tr4011-g9_breaker1" kind="BREAKER" retained="true" open="false" node1="3" node2="4"/>
                <iidm:switch id="L4011-4012_disconnector1" kind="DISCONNECTOR" retained="true" open="false" node1="0" node2="5"/>
                <iidm:switch id="L4011-4012_breaker1" kind="BREAKER" retained="true" open="false" node1="5" node2="6"/>
                <iidm:switch id="L4011-4021_disconnector2" kind="DISCONNECTOR" retained="true" open="false" node1="0" node2="7"/>
                <iidm:switch id="L4011-4021_breaker2" kind="BREAKER" retained="true" open="false" node1="7" node2="8"/>
                <iidm:switch id="L4011-4022_disconnector1" kind="DISCONNECTOR" retained="true" open="false" node1="0" node2="9"/>
                <iidm:switch id="L4011-4022_breaker1" kind="BREAKER" retained="true" open="false" node1="9" node2="10"/>
                <iidm:switch id="L4011-4071_disconnector2" kind="DISCONNECTOR" retained="true" open="false" node1="0" node2="11"/>
                <iidm:switch id="L4011-4071_breaker2" kind="BREAKER" retained="true" open="false" node1="11" node2="12"/>
                <iidm:bus v="431.8129257667473" angle="33.619462917991903" nodes="0,1,2,3,4,5,6,7,8,9,10,11,12"/>
            </iidm:nodeBreakerTopology>
        </iidm:voltageLevel>
        <iidm:voltageLevel id="B11___20" nominalV="20" highVoltageLimit="21" topologyKind="NODE_BREAKER">
            <iidm:nodeBreakerTopology>
                <iidm:busbarSection id="B11___21" node="0"/>
                <iidm:switch id="11_1_disconnector" kind="DISCONNECTOR" retained="true" open="false" node1="0" node2="1"/>
                <iidm:switch id="11_1_breaker" kind="BREAKER" retained="true" open="false" node1="1" node2="2"/>
                <iidm:switch id="Tr11-1011_disconnector2" kind="DISCONNECTOR" retained="true" open="false" node1="0" node2="3"/>
                <iidm:switch id="Tr11-1011_breaker2" kind="BREAKER" retained="true" open="false" node1="3" node2="4"/>
                <iidm:bus v="20.227162669049726" angle="31.299805449923515" nodes="0,1,2,3,4"/>
            </iidm:nodeBreakerTopology>
            <iidm:load id="11_1" loadType="UNDEFINED" p0="199.99400329589844" q0="68.7958984375" node="2" p="176.90745461399237" q="60.857721972596281"/>
        </iidm:voltageLevel>
        <iidm:voltageLevel id="BG09__15" nominalV="15" highVoltageLimit="15.750001907348633" topologyKind="NODE_BREAKER">
            <iidm:nodeBreakerTopology>
                <iidm:busbarSection id="BG09__11" node="0"/>
                <iidm:switch id="g09_disconnector" kind="DISCONNECTOR" retained="true" open="false" node1="0" node2="1"/>
                <iidm:switch id="g09_breaker" kind="BREAKER" retained="true" open="false" node1="1" node2="2"/>
                <iidm:switch id="Tr4011-g9_disconnector2" kind="DISCONNECTOR" retained="true" open="false" node1="0" node2="3"/>
                <iidm:switch id="Tr4011-g9_breaker2" kind="BREAKER" retained="true" open="false" node1="3" node2="4"/>
                <iidm:bus v="15.092021079110333" angle="36.739732720886458" nodes="0,1,2,3,4"/>
            </iidm:nodeBreakerTopology>
            <iidm:generator id="g09" energySource="HYDRO" minP="0" maxP="9999" voltageRegulatorOn="true" targetP="668.5" targetV="14.981999397277832" targetQ="201.25199890136719" node="2" p="-375.37562490526255" q="137.28453788918353">
                <iidm:property name="genreCvg" value="AUTRE"/>
                <iidm:reactiveCapabilityCurve>
                    <iidm:point p="0" minQ="-1000" maxQ="1000"/>
                    <iidm:point p="9999" minQ="-1000" maxQ="1000"/>
                </iidm:reactiveCapabilityCurve>
            </iidm:generator>
        </iidm:voltageLevel>
        <iidm:twoWindingsTransformer id="Tr1011-4011" r="0" x="1.3519998788833618" g="0" b="0" ratedU1="400" ratedU2="130" node1="2" voltageLevelId1="4011_400" node2="2" voltageLevelId2="1011_130" p1="-33.305766774799835" q1="235.21696875863566" p2="33.305766774799764" q2="-231.72054276579223">
            <iidm:ratioTapChanger lowTapPosition="0" tapPosition="0" loadTapChangingCapabilities="false">
                <iidm:step r="0" x="0" g="0" b="0" rho="1.0526316165924072"/>
                <iidm:step r="0" x="0" g="0" b="0" rho="1.0416667461395264"/>
                <iidm:step r="0" x="0" g="0" b="0" rho="1.0309277772903442"/>
                <iidm:step r="0" x="0" g="0" b="0" rho="1.0204081535339355"/>
                <iidm:step r="0" x="0" g="0" b="0" rho="1.0101009607315063"/>
                <iidm:step r="0" x="0" g="0" b="0" rho="1"/>
                <iidm:step r="0" x="0" g="0" b="0" rho="0.99009901285171509"/>
                <iidm:step r="0" x="0" g="0" b="0" rho="0.98039215803146362"/>
                <iidm:step r="0" x="0" g="0" b="0" rho="0.97087383270263672"/>
                <iidm:step r="0" x="0" g="0" b="0" rho="0.96153849363327026"/>
                <iidm:step r="0" x="0" g="0" b="0" rho="0.95238101482391357"/>
            </iidm:ratioTapChanger>
            <iidm:currentLimits1 permanentLimit="5551.43994140625"/>
            <iidm:currentLimits2 permanentLimit="5551.43994140625"/>
        </iidm:twoWindingsTransformer>
        <iidm:twoWindingsTransformer id="Tr11-1011" r="0" x="0.10000003129243851" g="0" b="0" ratedU1="130" ratedU2="20" node1="4" voltageLevelId1="1011_130" node2="4" voltageLevelId2="B11___20" p1="176.90745461557583" q1="69.412271144608908" p2="-176.90745461557566" q2="-60.857721971655785">
            <iidm:ratioTapChanger lowTapPosition="0" tapPosition="29" targetDeadband="0" loadTapChangingCapabilities="true" regulating="true" targetV="20">
                <iidm:terminalRef id="Tr11-1011" side="TWO"/>
                <iidm:step r="0" x="0" g="0" b="0" rho="1.25"/>
                <iidm:step r="0" x="0" g="0" b="0" rho="1.2345678806304932"/>
                <iidm:step r="0" x="0" g="0" b="0" rho="1.2195122241973877"/>
                <iidm:step r="0" x="0" g="0" b="0" rho="1.2048193216323853"/>
                <iidm:step r="0" x="0" g="0" b="0" rho="1.1904761791229248"/>
                <iidm:step r="0" x="0" g="0" b="0" rho="1.1764705181121826"/>
                <iidm:step r="0" x="0" g="0" b="0" rho="1.1627906560897827"/>
                <iidm:step r="0" x="0" g="0" b="0" rho="1.1494252681732178"/>
                <iidm:step r="0" x="0" g="0" b="0" rho="1.1363636255264282"/>
                <iidm:step r="0" x="0" g="0" b="0" rho="1.1235954761505127"/>
                <iidm:step r="0" x="0" g="0" b="0" rho="1.1111111640930176"/>
                <iidm:step r="0" x="0" g="0" b="0" rho="1.0989010334014893"/>
                <iidm:step r="0" x="0" g="0" b="0" rho="1.0869565010070801"/>
                <iidm:step r="0" x="0" g="0" b="0" rho="1.0752688646316528"/>
                <iidm:step r="0" x="0" g="0" b="0" rho="1.063829779624939"/>
                <iidm:step r="0" x="0" g="0" b="0" rho="1.0526316165924072"/>
                <iidm:step r="0" x="0" g="0" b="0" rho="1.0416667461395264"/>
                <iidm:step r="0" x="0" g="0" b="0" rho="1.0309277772903442"/>
                <iidm:step r="0" x="0" g="0" b="0" rho="1.0204081535339355"/>
                <iidm:step r="0" x="0" g="0" b="0" rho="1.0101009607315063"/>
                <iidm:step r="0" x="0" g="0" b="0" rho="1"/>
                <iidm:step r="0" x="0" g="0" b="0" rho="0.99009901285171509"/>
                <iidm:step r="0" x="0" g="0" b="0" rho="0.98039215803146362"/>
                <iidm:step r="0" x="0" g="0" b="0" rho="0.97087383270263672"/>
                <iidm:step r="0" x="0" g="0" b="0" rho="0.96153849363327026"/>
                <iidm:step r="0" x="0" g="0" b="0" rho="0.95238101482391357"/>
                <iidm:step r="0" x="0" g="0" b="0" rho="0.94339627027511597"/>
                <iidm:step r="0" x="0" g="0" b="0" rho="0.93457937240600586"/>
                <iidm:step r="0" x="0" g="0" b="0" rho="0.92592591047286987"/>
                <iidm:step r="0" x="0" g="0" b="0" rho="0.91743117570877075"/>
                <iidm:step r="0" x="0" g="0" b="0" rho="0.90909087657928467"/>
                <iidm:step r="0" x="0" g="0" b="0" rho="0.90090090036392212"/>
                <iidm:step r="0" x="0" g="0" b="0" rho="0.8928571343421936"/>
            </iidm:ratioTapChanger>
            <iidm:currentLimits1 permanentLimit="11547"/>
            <iidm:currentLimits2 permanentLimit="11547"/>
        </iidm:twoWindingsTransformer>
        <iidm:twoWindingsTransformer id="Tr4011-g9" r="0" x="0.033750001341104507" g="0" b="0" ratedU1="400" ratedU2="15" node1="4" voltageLevelId1="4011_400" node2="4" voltageLevelId2="BG09__15" p1="-375.37562490366429" q1="160.95629350556965" p2="375.3756249036644" q2="-137.28453788918321">
            <iidm:ratioTapChanger lowTapPosition="0" tapPosition="10" loadTapChangingCapabilities="false">
                <iidm:step r="0" x="0" g="0" b="0" rho="1.0526316165924072"/>
                <iidm:step r="0" x="0" g="0" b="0" rho="1.0416667461395264"/>
                <iidm:step r="0" x="0" g="0" b="0" rho="1.0309277772903442"/>
                <iidm:step r="0" x="0" g="0" b="0" rho="1.0204081535339355"/>
                <iidm:step r="0" x="0" g="0" b="0" rho="1.0101009607315063"/>
                <iidm:step r="0" x="0" g="0" b="0" rho="1"/>
                <iidm:step r="0" x="0" g="0" b="0" rho="0.99009901285171509"/>
                <iidm:step r="0" x="0" g="0" b="0" rho="0.98039215803146362"/>
                <iidm:step r="0" x="0" g="0" b="0" rho="0.97087383270263672"/>
                <iidm:step r="0" x="0" g="0" b="0" rho="0.96153849363327026"/>
                <iidm:step r="0" x="0" g="0" b="0" rho="0.95238101482391357"/>
            </iidm:ratioTapChanger>
            <iidm:currentLimits1 permanentLimit="38490"/>
            <iidm:currentLimits2 permanentLimit="38490"/>
        </iidm:twoWindingsTransformer>
    </iidm:substation>
    <iidm:substation id="S_4012" country="FR" tso="RTE">
        <iidm:voltageLevel id="1012_130" nominalV="130" highVoltageLimit="136.5" topologyKind="NODE_BREAKER">
            <iidm:nodeBreakerTopology>
                <iidm:busbarSection id="1012_131" node="0"/>
                <iidm:switch id="Tr1012-4012_disconnector2" kind="DISCONNECTOR" retained="true" open="false" node1="0" node2="1"/>
                <iidm:switch id="Tr1012-4012_breaker2" kind="BREAKER" retained="true" open="false" node1="1" node2="2"/>
                <iidm:switch id="Tr1012-g1_disconnector1" kind="DISCONNECTOR" retained="true" open="false" node1="0" node2="3"/>
                <iidm:switch id="Tr1012-g1_breaker1" kind="BREAKER" retained="true" open="false" node1="3" node2="4"/>
                <iidm:switch id="Tr12-1012_disconnector1" kind="DISCONNECTOR" retained="true" open="false" node1="0" node2="5"/>
                <iidm:switch id="Tr12-1012_breaker1" kind="BREAKER" retained="true" open="false" node1="5" node2="6"/>
                <iidm:switch id="L1012-1014a_disconnector2" kind="DISCONNECTOR" retained="true" open="false" node1="0" node2="7"/>
                <iidm:switch id="L1012-1014a_breaker2" kind="BREAKER" retained="true" open="false" node1="7" node2="8"/>
                <iidm:switch id="L1012-1014b_disconnector2" kind="DISCONNECTOR" retained="true" open="false" node1="0" node2="9"/>
                <iidm:switch id="L1012-1014b_breaker2" kind="BREAKER" retained="true" open="false" node1="9" node2="10"/>
                <iidm:bus v="143.38651976012474" angle="35.870701438945773" nodes="0,1,2,3,4,5,6,7,8,9,10"/>
            </iidm:nodeBreakerTopology>
        </iidm:voltageLevel>
        <iidm:voltageLevel id="4012_400" nominalV="400" highVoltageLimit="420" topologyKind="NODE_BREAKER">
            <iidm:nodeBreakerTopology>
                <iidm:busbarSection id="4012_401" node="0"/>
                <iidm:switch id="4012-Ind_disconnector" kind="DISCONNECTOR" retained="true" open="false" node1="0" node2="1"/>
                <iidm:switch id="4012-Ind_breaker" kind="BREAKER" retained="true" open="false" node1="1" node2="2"/>
                <iidm:switch id="Tr1012-4012_disconnector1" kind="DISCONNECTOR" retained="true" open="false" node1="0" node2="3"/>
                <iidm:switch id="Tr1012-4012_breaker1" kind="BREAKER" retained="true" open="false" node1="3" node2="4"/>
                <iidm:switch id="Tr4012-g10_disconnector1" kind="DISCONNECTOR" retained="true" open="false" node1="0" node2="5"/>
                <iidm:switch id="Tr4012-g10_breaker1" kind="BREAKER" retained="true" open="false" node1="5" node2="6"/>
                <iidm:switch id="L4011-4012_disconnector2" kind="DISCONNECTOR" retained="true" open="false" node1="0" node2="7"/>
                <iidm:switch id="L4011-4012_breaker2" kind="BREAKER" retained="true" open="false" node1="7" node2="8"/>
                <iidm:switch id="L4012-4022_disconnector1" kind="DISCONNECTOR" retained="true" open="false" node1="0" node2="9"/>
                <iidm:switch id="L4012-4022_breaker1" kind="BREAKER" retained="true" open="false" node1="9" node2="10"/>
                <iidm:switch id="L4012-4071_disconnector2" kind="DISCONNECTOR" retained="true" open="false" node1="0" node2="11"/>
                <iidm:switch id="L4012-4071_breaker2" kind="BREAKER" retained="true" open="false" node1="11" node2="12"/>
                <iidm:bus v="428.41578371624394" angle="34.719652369000215" nodes="0,1,2,3,4,5,6,7,8,9,10,11,12"/>
            </iidm:nodeBreakerTopology>
            <iidm:shunt id="4012-Ind" sectionCount="1" voltageRegulatorOn="false" node="2" q="114.71254977172683">
                <iidm:property name="qMax" value="-100"/>
                <iidm:shuntLinearModel bPerSection="-0.00062499998603016138" maximumSectionCount="1"/>
            </iidm:shunt>
        </iidm:voltageLevel>
        <iidm:voltageLevel id="B12___20" nominalV="20" highVoltageLimit="21" topologyKind="NODE_BREAKER">
            <iidm:nodeBreakerTopology>
                <iidm:busbarSection id="B12___21" node="0"/>
                <iidm:switch id="12_1_disconnector" kind="DISCONNECTOR" retained="true" open="false" node1="0" node2="1"/>
                <iidm:switch id="12_1_breaker" kind="BREAKER" retained="true" open="false" node1="1" node2="2"/>
                <iidm:switch id="Tr12-1012_disconnector2" kind="DISCONNECTOR" retained="true" open="false" node1="0" node2="3"/>
                <iidm:switch id="Tr12-1012_breaker2" kind="BREAKER" retained="true" open="false" node1="3" node2="4"/>
                <iidm:bus v="20.208693717913583" angle="33.824674899800172" nodes="0,1,2,3,4"/>
            </iidm:nodeBreakerTopology>
            <iidm:load id="12_1" loadType="UNDEFINED" p0="300.00201416015625" q0="83.801200866699219" node="2" p="221.05298110864894" q="61.751895652627617"/>
        </iidm:voltageLevel>
        <iidm:voltageLevel id="BG01__15" nominalV="15" highVoltageLimit="15.750001907348633" topologyKind="NODE_BREAKER">
            <iidm:nodeBreakerTopology>
                <iidm:busbarSection id="BG01__11" node="0"/>
                <iidm:switch id="g01_disconnector" kind="DISCONNECTOR" retained="true" open="false" node1="0" node2="1"/>
                <iidm:switch id="g01_breaker" kind="BREAKER" retained="true" open="false" node1="1" node2="2"/>
                <iidm:switch id="Tr1012-g1_disconnector2" kind="DISCONNECTOR" retained="true" open="false" node1="0" node2="3"/>
                <iidm:switch id="Tr1012-g1_breaker2" kind="BREAKER" retained="true" open="false" node1="3" node2="4"/>
                <iidm:bus v="16.116127427346211" angle="39.18590358055755" nodes="0,1,2,3,4"/>
            </iidm:nodeBreakerTopology>
            <iidm:generator id="g01" energySource="HYDRO" minP="0" maxP="9999" voltageRegulatorOn="true" targetP="600" targetV="16.025999069213867" targetQ="58.340000152587891" node="2" p="-365.49216633694306" q="153.1041381423862">
                <iidm:property name="genreCvg" value="AUTRE"/>
                <iidm:reactiveCapabilityCurve>
                    <iidm:point p="0" minQ="-800" maxQ="800"/>
                    <iidm:point p="9999" minQ="-800" maxQ="800"/>
                </iidm:reactiveCapabilityCurve>
            </iidm:generator>
        </iidm:voltageLevel>
        <iidm:voltageLevel id="BG10__15" nominalV="15" highVoltageLimit="15.750001907348633" topologyKind="NODE_BREAKER">
            <iidm:nodeBreakerTopology>
                <iidm:busbarSection id="BG10__11" node="0"/>
                <iidm:switch id="g10_disconnector" kind="DISCONNECTOR" retained="true" open="false" node1="0" node2="1"/>
                <iidm:switch id="g10_breaker" kind="BREAKER" retained="true" open="false" node1="1" node2="2"/>
                <iidm:switch id="Tr4012-g10_disconnector2" kind="DISCONNECTOR" retained="true" open="false" node1="0" node2="3"/>
                <iidm:switch id="Tr4012-g10_breaker2" kind="BREAKER" retained="true" open="false" node1="3" node2="4"/>
                <iidm:bus v="15.334472034464818" angle="38.490530177057927" nodes="0,1,2,3,4"/>
            </iidm:nodeBreakerTopology>
            <iidm:generator id="g10" energySource="HYDRO" minP="0" maxP="9999" voltageRegulatorOn="true" targetP="600" targetV="15.235500335693359" targetQ="255.70100402832031" node="2" p="-365.76213730718507" q="-24.365287069034537">
                <iidm:property name="genreCvg" value="AUTRE"/>
                <iidm:reactiveCapabilityCurve>
                    <iidm:point p="0" minQ="-800" maxQ="800"/>
                    <iidm:point p="9999" minQ="-800" maxQ="800"/>
                </iidm:reactiveCapabilityCurve>
            </iidm:generator>
        </iidm:voltageLevel>
        <iidm:twoWindingsTransformer id="Tr1012-4012" r="0" x="1.3519998788833618" g="0" b="0" ratedU1="400" ratedU2="130" node1="4" voltageLevelId1="4012_400" node2="2" voltageLevelId2="1012_130" p1="-312.24744801063486" q1="347.51481342162367" p2="312.24744801063628" q2="-333.77723093796914">
            <iidm:ratioTapChanger lowTapPosition="0" tapPosition="0" loadTapChangingCapabilities="false">
                <iidm:step r="0" x="0" g="0" b="0" rho="1.0526316165924072"/>
                <iidm:step r="0" x="0" g="0" b="0" rho="1.0416667461395264"/>
                <iidm:step r="0" x="0" g="0" b="0" rho="1.0309277772903442"/>
                <iidm:step r="0" x="0" g="0" b="0" rho="1.0204081535339355"/>
                <iidm:step r="0" x="0" g="0" b="0" rho="1.0101009607315063"/>
                <iidm:step r="0" x="0" g="0" b="0" rho="1"/>
                <iidm:step r="0" x="0" g="0" b="0" rho="0.99009901285171509"/>
                <iidm:step r="0" x="0" g="0" b="0" rho="0.98039215803146362"/>
                <iidm:step r="0" x="0" g="0" b="0" rho="0.97087383270263672"/>
                <iidm:step r="0" x="0" g="0" b="0" rho="0.96153849363327026"/>
                <iidm:step r="0" x="0" g="0" b="0" rho="0.95238101482391357"/>
            </iidm:ratioTapChanger>
            <iidm:currentLimits1 permanentLimit="5551.43994140625"/>
            <iidm:currentLimits2 permanentLimit="5551.43994140625"/>
        </iidm:twoWindingsTransformer>
        <iidm:twoWindingsTransformer id="Tr1012-g1" r="0" x="0.042187508195638657" g="0" b="0" ratedU1="130" ratedU2="15" node1="4" voltageLevelId1="1012_130" node2="4" voltageLevelId2="BG01__15" p1="-365.49216634137639" q1="178.60955346376119" p2="365.49216634137639" q2="-153.1041381423864">
            <iidm:ratioTapChanger lowTapPosition="0" tapPosition="5" loadTapChangingCapabilities="false">
                <iidm:step r="0" x="0" g="0" b="0" rho="1.0526316165924072"/>
                <iidm:step r="0" x="0" g="0" b="0" rho="1.0416667461395264"/>
                <iidm:step r="0" x="0" g="0" b="0" rho="1.0309277772903442"/>
                <iidm:step r="0" x="0" g="0" b="0" rho="1.0204081535339355"/>
                <iidm:step r="0" x="0" g="0" b="0" rho="1.0101009607315063"/>
                <iidm:step r="0" x="0" g="0" b="0" rho="1"/>
                <iidm:step r="0" x="0" g="0" b="0" rho="0.99009901285171509"/>
                <iidm:step r="0" x="0" g="0" b="0" rho="0.98039215803146362"/>
                <iidm:step r="0" x="0" g="0" b="0" rho="0.97087383270263672"/>
                <iidm:step r="0" x="0" g="0" b="0" rho="0.96153849363327026"/>
                <iidm:step r="0" x="0" g="0" b="0" rho="0.95238101482391357"/>
            </iidm:ratioTapChanger>
            <iidm:currentLimits1 permanentLimit="30791.998046875"/>
            <iidm:currentLimits2 permanentLimit="30791.998046875"/>
        </iidm:twoWindingsTransformer>
        <iidm:twoWindingsTransformer id="Tr12-1012" r="0" x="0.066666767001152039" g="0" b="0" ratedU1="130" ratedU2="20" node1="6" voltageLevelId1="1012_130" node2="4" voltageLevelId2="B12___20" p1="221.05298111083735" q1="70.351131421043917" p2="-221.05298111083655" q2="-61.751895651294042">
            <iidm:ratioTapChanger lowTapPosition="0" tapPosition="28" targetDeadband="0" loadTapChangingCapabilities="true" regulating="true" targetV="20">
                <iidm:terminalRef id="Tr12-1012" side="TWO"/>
                <iidm:step r="0" x="0" g="0" b="0" rho="1.25"/>
                <iidm:step r="0" x="0" g="0" b="0" rho="1.2345678806304932"/>
                <iidm:step r="0" x="0" g="0" b="0" rho="1.2195122241973877"/>
                <iidm:step r="0" x="0" g="0" b="0" rho="1.2048193216323853"/>
                <iidm:step r="0" x="0" g="0" b="0" rho="1.1904761791229248"/>
                <iidm:step r="0" x="0" g="0" b="0" rho="1.1764705181121826"/>
                <iidm:step r="0" x="0" g="0" b="0" rho="1.1627906560897827"/>
                <iidm:step r="0" x="0" g="0" b="0" rho="1.1494252681732178"/>
                <iidm:step r="0" x="0" g="0" b="0" rho="1.1363636255264282"/>
                <iidm:step r="0" x="0" g="0" b="0" rho="1.1235954761505127"/>
                <iidm:step r="0" x="0" g="0" b="0" rho="1.1111111640930176"/>
                <iidm:step r="0" x="0" g="0" b="0" rho="1.0989010334014893"/>
                <iidm:step r="0" x="0" g="0" b="0" rho="1.0869565010070801"/>
                <iidm:step r="0" x="0" g="0" b="0" rho="1.0752688646316528"/>
                <iidm:step r="0" x="0" g="0" b="0" rho="1.063829779624939"/>
                <iidm:step r="0" x="0" g="0" b="0" rho="1.0526316165924072"/>
                <iidm:step r="0" x="0" g="0" b="0" rho="1.0416667461395264"/>
                <iidm:step r="0" x="0" g="0" b="0" rho="1.0309277772903442"/>
                <iidm:step r="0" x="0" g="0" b="0" rho="1.0204081535339355"/>
                <iidm:step r="0" x="0" g="0" b="0" rho="1.0101009607315063"/>
                <iidm:step r="0" x="0" g="0" b="0" rho="1"/>
                <iidm:step r="0" x="0" g="0" b="0" rho="0.99009901285171509"/>
                <iidm:step r="0" x="0" g="0" b="0" rho="0.98039215803146362"/>
                <iidm:step r="0" x="0" g="0" b="0" rho="0.97087383270263672"/>
                <iidm:step r="0" x="0" g="0" b="0" rho="0.96153849363327026"/>
                <iidm:step r="0" x="0" g="0" b="0" rho="0.95238101482391357"/>
                <iidm:step r="0" x="0" g="0" b="0" rho="0.94339627027511597"/>
                <iidm:step r="0" x="0" g="0" b="0" rho="0.93457937240600586"/>
                <iidm:step r="0" x="0" g="0" b="0" rho="0.92592591047286987"/>
                <iidm:step r="0" x="0" g="0" b="0" rho="0.91743117570877075"/>
                <iidm:step r="0" x="0" g="0" b="0" rho="0.90909087657928467"/>
                <iidm:step r="0" x="0" g="0" b="0" rho="0.90090090036392212"/>
                <iidm:step r="0" x="0" g="0" b="0" rho="0.8928571343421936"/>
            </iidm:ratioTapChanger>
            <iidm:currentLimits1 permanentLimit="17320.5"/>
            <iidm:currentLimits2 permanentLimit="17320.5"/>
        </iidm:twoWindingsTransformer>
        <iidm:twoWindingsTransformer id="Tr4012-g10" r="0" x="0.04218750074505806" g="0" b="0" ratedU1="400" ratedU2="15" node1="6" voltageLevelId1="4012_400" node2="4" voltageLevelId2="BG10__15" p1="-365.76213730904641" q1="-0.25698716154332057" p2="365.76213730904658" q2="24.365287069034537">
            <iidm:ratioTapChanger lowTapPosition="0" tapPosition="10" loadTapChangingCapabilities="false">
                <iidm:step r="0" x="0" g="0" b="0" rho="1.0526316165924072"/>
                <iidm:step r="0" x="0" g="0" b="0" rho="1.0416667461395264"/>
                <iidm:step r="0" x="0" g="0" b="0" rho="1.0309277772903442"/>
                <iidm:step r="0" x="0" g="0" b="0" rho="1.0204081535339355"/>
                <iidm:step r="0" x="0" g="0" b="0" rho="1.0101009607315063"/>
                <iidm:step r="0" x="0" g="0" b="0" rho="1"/>
                <iidm:step r="0" x="0" g="0" b="0" rho="0.99009901285171509"/>
                <iidm:step r="0" x="0" g="0" b="0" rho="0.98039215803146362"/>
                <iidm:step r="0" x="0" g="0" b="0" rho="0.97087383270263672"/>
                <iidm:step r="0" x="0" g="0" b="0" rho="0.96153849363327026"/>
                <iidm:step r="0" x="0" g="0" b="0" rho="0.95238101482391357"/>
            </iidm:ratioTapChanger>
            <iidm:currentLimits1 permanentLimit="30792"/>
            <iidm:currentLimits2 permanentLimit="30792"/>
        </iidm:twoWindingsTransformer>
    </iidm:substation>
    <iidm:substation id="S_1013" country="FR" tso="RTE">
        <iidm:voltageLevel id="1013_130" nominalV="130" highVoltageLimit="136.5" topologyKind="NODE_BREAKER">
            <iidm:nodeBreakerTopology>
                <iidm:busbarSection id="1013_131" node="0"/>
                <iidm:switch id="Tr1013-g2_disconnector1" kind="DISCONNECTOR" retained="true" open="false" node1="0" node2="1"/>
                <iidm:switch id="Tr1013-g2_breaker1" kind="BREAKER" retained="true" open="false" node1="1" node2="2"/>
                <iidm:switch id="Tr13-1013_disconnector1" kind="DISCONNECTOR" retained="true" open="false" node1="0" node2="3"/>
                <iidm:switch id="Tr13-1013_breaker1" kind="BREAKER" retained="true" open="false" node1="3" node2="4"/>
                <iidm:switch id="L1011-1013a_disconnector2" kind="DISCONNECTOR" retained="true" open="false" node1="0" node2="5"/>
                <iidm:switch id="L1011-1013a_breaker2" kind="BREAKER" retained="true" open="false" node1="5" node2="6"/>
                <iidm:switch id="L1011-1013b_disconnector2" kind="DISCONNECTOR" retained="true" open="false" node1="0" node2="7"/>
                <iidm:switch id="L1011-1013b_breaker2" kind="BREAKER" retained="true" open="false" node1="7" node2="8"/>
                <iidm:switch id="L1013-1014a_disconnector1" kind="DISCONNECTOR" retained="true" open="false" node1="0" node2="9"/>
                <iidm:switch id="L1013-1014a_breaker1" kind="BREAKER" retained="true" open="false" node1="9" node2="10"/>
                <iidm:switch id="L1013-1014b_disconnector1" kind="DISCONNECTOR" retained="true" open="false" node1="0" node2="11"/>
                <iidm:switch id="L1013-1014b_breaker1" kind="BREAKER" retained="true" open="false" node1="11" node2="12"/>
                <iidm:bus v="140.44918433006356" angle="37.615307019339518" nodes="0,1,2,3,4,5,6,7,8,9,10,11,12"/>
            </iidm:nodeBreakerTopology>
        </iidm:voltageLevel>
        <iidm:voltageLevel id="B13___20" nominalV="20" highVoltageLimit="21" topologyKind="NODE_BREAKER">
            <iidm:nodeBreakerTopology>
                <iidm:busbarSection id="B13___21" node="0"/>
                <iidm:switch id="13_1_disconnector" kind="DISCONNECTOR" retained="true" open="false" node1="0" node2="1"/>
                <iidm:switch id="13_1_breaker" kind="BREAKER" retained="true" open="false" node1="1" node2="2"/>
                <iidm:switch id="Tr13-1013_disconnector2" kind="DISCONNECTOR" retained="true" open="false" node1="0" node2="3"/>
                <iidm:switch id="Tr13-1013_breaker2" kind="BREAKER" retained="true" open="false" node1="3" node2="4"/>
                <iidm:bus v="20.076203623247174" angle="35.239051796618853" nodes="0,1,2,3,4"/>
            </iidm:nodeBreakerTopology>
            <iidm:load id="13_1" loadType="UNDEFINED" p0="100.00299835205078" q0="34.401699066162109" node="2" p="84.839367770554816" q="29.187344465151384"/>
        </iidm:voltageLevel>
        <iidm:voltageLevel id="BG02__15" nominalV="15" highVoltageLimit="15.750001907348633" topologyKind="NODE_BREAKER">
            <iidm:nodeBreakerTopology>
                <iidm:busbarSection id="BG02__11" node="0"/>
                <iidm:switch id="g02_disconnector" kind="DISCONNECTOR" retained="true" open="false" node1="0" node2="1"/>
                <iidm:switch id="g02_breaker" kind="BREAKER" retained="true" open="false" node1="1" node2="2"/>
                <iidm:switch id="Tr1013-g2_disconnector2" kind="DISCONNECTOR" retained="true" open="false" node1="0" node2="3"/>
                <iidm:switch id="Tr1013-g2_breaker2" kind="BREAKER" retained="true" open="false" node1="3" node2="4"/>
                <iidm:bus v="15.908122509235003" angle="39.163141233930176" nodes="0,1,2,3,4"/>
            </iidm:nodeBreakerTopology>
            <iidm:generator id="g02" energySource="HYDRO" minP="0" maxP="9999" voltageRegulatorOn="true" targetP="300" targetV="15.847498893737793" targetQ="17.233400344848633" node="2" p="-123.79766047047855" q="82.478868958106091">
                <iidm:property name="genreCvg" value="AUTRE"/>
                <iidm:reactiveCapabilityCurve>
                    <iidm:point p="0" minQ="-600" maxQ="600"/>
                    <iidm:point p="9999" minQ="-600" maxQ="600"/>
                </iidm:reactiveCapabilityCurve>
            </iidm:generator>
        </iidm:voltageLevel>
        <iidm:twoWindingsTransformer id="Tr1013-g2" r="0" x="0.056250009685754776" g="0" b="0" ratedU1="130" ratedU2="15" node1="2" voltageLevelId1="1013_130" node2="4" voltageLevelId2="BG02__15" p1="-123.79766046975418" q1="87.397442490043048" p2="123.79766046975418" q2="-82.478868958105238">
            <iidm:ratioTapChanger lowTapPosition="0" tapPosition="5" loadTapChangingCapabilities="false">
                <iidm:step r="0" x="0" g="0" b="0" rho="1.0526316165924072"/>
                <iidm:step r="0" x="0" g="0" b="0" rho="1.0416667461395264"/>
                <iidm:step r="0" x="0" g="0" b="0" rho="1.0309277772903442"/>
                <iidm:step r="0" x="0" g="0" b="0" rho="1.0204081535339355"/>
                <iidm:step r="0" x="0" g="0" b="0" rho="1.0101009607315063"/>
                <iidm:step r="0" x="0" g="0" b="0" rho="1"/>
                <iidm:step r="0" x="0" g="0" b="0" rho="0.99009901285171509"/>
                <iidm:step r="0" x="0" g="0" b="0" rho="0.98039215803146362"/>
                <iidm:step r="0" x="0" g="0" b="0" rho="0.97087383270263672"/>
                <iidm:step r="0" x="0" g="0" b="0" rho="0.96153849363327026"/>
                <iidm:step r="0" x="0" g="0" b="0" rho="0.95238101482391357"/>
            </iidm:ratioTapChanger>
            <iidm:currentLimits1 permanentLimit="23094"/>
            <iidm:currentLimits2 permanentLimit="23094"/>
        </iidm:twoWindingsTransformer>
        <iidm:twoWindingsTransformer id="Tr13-1013" r="0" x="0.20000006258487701" g="0" b="0" ratedU1="130" ratedU2="20" node1="4" voltageLevelId1="1013_130" node2="4" voltageLevelId2="B13___20" p1="84.839367771346588" q1="33.181659310694783" p2="-84.839367771346531" q2="-29.187344464618757">
            <iidm:ratioTapChanger lowTapPosition="0" tapPosition="26" targetDeadband="0" loadTapChangingCapabilities="true" regulating="true" targetV="20">
                <iidm:terminalRef id="Tr13-1013" side="TWO"/>
                <iidm:step r="0" x="0" g="0" b="0" rho="1.25"/>
                <iidm:step r="0" x="0" g="0" b="0" rho="1.2345678806304932"/>
                <iidm:step r="0" x="0" g="0" b="0" rho="1.2195122241973877"/>
                <iidm:step r="0" x="0" g="0" b="0" rho="1.2048193216323853"/>
                <iidm:step r="0" x="0" g="0" b="0" rho="1.1904761791229248"/>
                <iidm:step r="0" x="0" g="0" b="0" rho="1.1764705181121826"/>
                <iidm:step r="0" x="0" g="0" b="0" rho="1.1627906560897827"/>
                <iidm:step r="0" x="0" g="0" b="0" rho="1.1494252681732178"/>
                <iidm:step r="0" x="0" g="0" b="0" rho="1.1363636255264282"/>
                <iidm:step r="0" x="0" g="0" b="0" rho="1.1235954761505127"/>
                <iidm:step r="0" x="0" g="0" b="0" rho="1.1111111640930176"/>
                <iidm:step r="0" x="0" g="0" b="0" rho="1.0989010334014893"/>
                <iidm:step r="0" x="0" g="0" b="0" rho="1.0869565010070801"/>
                <iidm:step r="0" x="0" g="0" b="0" rho="1.0752688646316528"/>
                <iidm:step r="0" x="0" g="0" b="0" rho="1.063829779624939"/>
                <iidm:step r="0" x="0" g="0" b="0" rho="1.0526316165924072"/>
                <iidm:step r="0" x="0" g="0" b="0" rho="1.0416667461395264"/>
                <iidm:step r="0" x="0" g="0" b="0" rho="1.0309277772903442"/>
                <iidm:step r="0" x="0" g="0" b="0" rho="1.0204081535339355"/>
                <iidm:step r="0" x="0" g="0" b="0" rho="1.0101009607315063"/>
                <iidm:step r="0" x="0" g="0" b="0" rho="1"/>
                <iidm:step r="0" x="0" g="0" b="0" rho="0.99009901285171509"/>
                <iidm:step r="0" x="0" g="0" b="0" rho="0.98039215803146362"/>
                <iidm:step r="0" x="0" g="0" b="0" rho="0.97087383270263672"/>
                <iidm:step r="0" x="0" g="0" b="0" rho="0.96153849363327026"/>
                <iidm:step r="0" x="0" g="0" b="0" rho="0.95238101482391357"/>
                <iidm:step r="0" x="0" g="0" b="0" rho="0.94339627027511597"/>
                <iidm:step r="0" x="0" g="0" b="0" rho="0.93457937240600586"/>
                <iidm:step r="0" x="0" g="0" b="0" rho="0.92592591047286987"/>
                <iidm:step r="0" x="0" g="0" b="0" rho="0.91743117570877075"/>
                <iidm:step r="0" x="0" g="0" b="0" rho="0.90909087657928467"/>
                <iidm:step r="0" x="0" g="0" b="0" rho="0.90090090036392212"/>
                <iidm:step r="0" x="0" g="0" b="0" rho="0.8928571343421936"/>
            </iidm:ratioTapChanger>
            <iidm:currentLimits1 permanentLimit="5773.5"/>
            <iidm:currentLimits2 permanentLimit="5773.5"/>
        </iidm:twoWindingsTransformer>
    </iidm:substation>
    <iidm:substation id="S_1014" country="FR" tso="RTE">
        <iidm:voltageLevel id="1014_130" nominalV="130" highVoltageLimit="136.5" topologyKind="NODE_BREAKER">
            <iidm:nodeBreakerTopology>
                <iidm:busbarSection id="1014_131" node="0"/>
                <iidm:switch id="Tr1014-g3_disconnector1" kind="DISCONNECTOR" retained="true" open="false" node1="0" node2="1"/>
                <iidm:switch id="Tr1014-g3_breaker1" kind="BREAKER" retained="true" open="false" node1="1" node2="2"/>
                <iidm:switch id="L1012-1014a_disconnector1" kind="DISCONNECTOR" retained="true" open="false" node1="0" node2="3"/>
                <iidm:switch id="L1012-1014a_breaker1" kind="BREAKER" retained="true" open="false" node1="3" node2="4"/>
                <iidm:switch id="L1012-1014b_disconnector1" kind="DISCONNECTOR" retained="true" open="false" node1="0" node2="5"/>
                <iidm:switch id="L1012-1014b_breaker1" kind="BREAKER" retained="true" open="false" node1="5" node2="6"/>
                <iidm:switch id="L1013-1014a_disconnector2" kind="DISCONNECTOR" retained="true" open="false" node1="0" node2="7"/>
                <iidm:switch id="L1013-1014a_breaker2" kind="BREAKER" retained="true" open="false" node1="7" node2="8"/>
                <iidm:switch id="L1013-1014b_disconnector2" kind="DISCONNECTOR" retained="true" open="false" node1="0" node2="9"/>
                <iidm:switch id="L1013-1014b_breaker2" kind="BREAKER" retained="true" open="false" node1="9" node2="10"/>
                <iidm:bus v="140.48804866194382" angle="39.796888727793288" nodes="0,1,2,3,4,5,6,7,8,9,10"/>
            </iidm:nodeBreakerTopology>
        </iidm:voltageLevel>
        <iidm:voltageLevel id="BG03__15" nominalV="15" highVoltageLimit="15.750001907348633" topologyKind="NODE_BREAKER">
            <iidm:nodeBreakerTopology>
                <iidm:busbarSection id="BG03__11" node="0"/>
                <iidm:switch id="g03_disconnector" kind="DISCONNECTOR" retained="true" open="false" node1="0" node2="1"/>
                <iidm:switch id="g03_breaker" kind="BREAKER" retained="true" open="false" node1="1" node2="2"/>
                <iidm:switch id="Tr1014-g3_disconnector2" kind="DISCONNECTOR" retained="true" open="false" node1="0" node2="3"/>
                <iidm:switch id="Tr1014-g3_breaker2" kind="BREAKER" retained="true" open="false" node1="3" node2="4"/>
                <iidm:bus v="15.955120196495884" angle="43.48314240780104" nodes="0,1,2,3,4"/>
            </iidm:nodeBreakerTopology>
            <iidm:generator id="g03" energySource="HYDRO" minP="0" maxP="9999" voltageRegulatorOn="true" targetP="550" targetV="15.892499923706055" targetQ="20.913200378417969" node="2" p="-344.88495903194882" q="73.299485387048051">
                <iidm:property name="genreCvg" value="AUTRE"/>
                <iidm:reactiveCapabilityCurve>
                    <iidm:point p="0" minQ="-700" maxQ="700"/>
                    <iidm:point p="9999" minQ="-700" maxQ="700"/>
                </iidm:reactiveCapabilityCurve>
            </iidm:generator>
        </iidm:voltageLevel>
        <iidm:twoWindingsTransformer id="Tr1014-g3" r="0" x="0.048214320093393326" g="0" b="0" ratedU1="130" ratedU2="15" node1="2" voltageLevelId1="1014_130" node2="4" voltageLevelId2="BG03__15" p1="-344.88495903838106" q1="96.845178072196347" p2="344.88495903838106" q2="-73.299485387048577">
            <iidm:ratioTapChanger lowTapPosition="0" tapPosition="5" loadTapChangingCapabilities="false">
                <iidm:step r="0" x="0" g="0" b="0" rho="1.0526316165924072"/>
                <iidm:step r="0" x="0" g="0" b="0" rho="1.0416667461395264"/>
                <iidm:step r="0" x="0" g="0" b="0" rho="1.0309277772903442"/>
                <iidm:step r="0" x="0" g="0" b="0" rho="1.0204081535339355"/>
                <iidm:step r="0" x="0" g="0" b="0" rho="1.0101009607315063"/>
                <iidm:step r="0" x="0" g="0" b="0" rho="1"/>
                <iidm:step r="0" x="0" g="0" b="0" rho="0.99009901285171509"/>
                <iidm:step r="0" x="0" g="0" b="0" rho="0.98039215803146362"/>
                <iidm:step r="0" x="0" g="0" b="0" rho="0.97087383270263672"/>
                <iidm:step r="0" x="0" g="0" b="0" rho="0.96153849363327026"/>
                <iidm:step r="0" x="0" g="0" b="0" rho="0.95238101482391357"/>
            </iidm:ratioTapChanger>
            <iidm:currentLimits1 permanentLimit="26943"/>
            <iidm:currentLimits2 permanentLimit="26943"/>
        </iidm:twoWindingsTransformer>
    </iidm:substation>
    <iidm:substation id="S_1021" country="FR" tso="RTE">
        <iidm:voltageLevel id="1021_130" nominalV="130" highVoltageLimit="136.5" topologyKind="NODE_BREAKER">
            <iidm:nodeBreakerTopology>
                <iidm:busbarSection id="1021_131" node="0"/>
                <iidm:switch id="Tr1021-g4_disconnector1" kind="DISCONNECTOR" retained="true" open="false" node1="0" node2="1"/>
                <iidm:switch id="Tr1021-g4_breaker1" kind="BREAKER" retained="true" open="false" node1="1" node2="2"/>
                <iidm:switch id="L1021-1022a_disconnector2" kind="DISCONNECTOR" retained="true" open="false" node1="0" node2="3"/>
                <iidm:switch id="L1021-1022a_breaker2" kind="BREAKER" retained="true" open="false" node1="3" node2="4"/>
                <iidm:switch id="L1021-1022b_disconnector2" kind="DISCONNECTOR" retained="true" open="false" node1="0" node2="5"/>
                <iidm:switch id="L1021-1022b_breaker2" kind="BREAKER" retained="true" open="false" node1="5" node2="6"/>
                <iidm:bus v="138.57626334068985" angle="39.399874272216913" nodes="0,1,2,3,4,5,6"/>
            </iidm:nodeBreakerTopology>
        </iidm:voltageLevel>
        <iidm:voltageLevel id="BG04__15" nominalV="15" highVoltageLimit="15.750001907348633" topologyKind="NODE_BREAKER">
            <iidm:nodeBreakerTopology>
                <iidm:busbarSection id="BG04__11" node="0"/>
                <iidm:switch id="g04_disconnector" kind="DISCONNECTOR" retained="true" open="false" node1="0" node2="1"/>
                <iidm:switch id="g04_breaker" kind="BREAKER" retained="true" open="false" node1="1" node2="2"/>
                <iidm:switch id="Tr1021-g4_disconnector2" kind="DISCONNECTOR" retained="true" open="false" node1="0" node2="3"/>
                <iidm:switch id="Tr1021-g4_breaker2" kind="BREAKER" retained="true" open="false" node1="3" node2="4"/>
                <iidm:bus v="15.589433015020951" angle="42.29770580276881" nodes="0,1,2,3,4"/>
            </iidm:nodeBreakerTopology>
            <iidm:generator id="g04" energySource="HYDRO" minP="0" maxP="9999" voltageRegulatorOn="true" targetP="400" targetV="15.508500099182129" targetQ="30.375099182128906" node="2" p="-224.03186948039075" q="105.22921198828246">
                <iidm:property name="genreCvg" value="AUTRE"/>
                <iidm:reactiveCapabilityCurve>
                    <iidm:point p="0" minQ="-600" maxQ="600"/>
                    <iidm:point p="9999" minQ="-600" maxQ="600"/>
                </iidm:reactiveCapabilityCurve>
            </iidm:generator>
        </iidm:voltageLevel>
        <iidm:twoWindingsTransformer id="Tr1021-g4" r="0" x="0.056250009685754776" g="0" b="0" ratedU1="130" ratedU2="15" node1="2" voltageLevelId1="1021_130" node2="4" voltageLevelId2="BG04__15" p1="-224.03186947931277" q1="119.40879703259944" p2="224.03186947931277" q2="-105.22921198828206">
            <iidm:ratioTapChanger lowTapPosition="0" tapPosition="5" loadTapChangingCapabilities="false">
                <iidm:step r="0" x="0" g="0" b="0" rho="1.0526316165924072"/>
                <iidm:step r="0" x="0" g="0" b="0" rho="1.0416667461395264"/>
                <iidm:step r="0" x="0" g="0" b="0" rho="1.0309277772903442"/>
                <iidm:step r="0" x="0" g="0" b="0" rho="1.0204081535339355"/>
                <iidm:step r="0" x="0" g="0" b="0" rho="1.0101009607315063"/>
                <iidm:step r="0" x="0" g="0" b="0" rho="1"/>
                <iidm:step r="0" x="0" g="0" b="0" rho="0.99009901285171509"/>
                <iidm:step r="0" x="0" g="0" b="0" rho="0.98039215803146362"/>
                <iidm:step r="0" x="0" g="0" b="0" rho="0.97087383270263672"/>
                <iidm:step r="0" x="0" g="0" b="0" rho="0.96153849363327026"/>
                <iidm:step r="0" x="0" g="0" b="0" rho="0.95238101482391357"/>
            </iidm:ratioTapChanger>
            <iidm:currentLimits1 permanentLimit="23094"/>
            <iidm:currentLimits2 permanentLimit="23094"/>
        </iidm:twoWindingsTransformer>
    </iidm:substation>
    <iidm:substation id="S_4022" country="FR" tso="RTE">
        <iidm:voltageLevel id="1022_130" nominalV="130" highVoltageLimit="136.5" topologyKind="NODE_BREAKER">
            <iidm:nodeBreakerTopology>
                <iidm:busbarSection id="1022_131" node="0"/>
                <iidm:switch id="1022-Cap_disconnector" kind="DISCONNECTOR" retained="true" open="false" node1="0" node2="1"/>
                <iidm:switch id="1022-Cap_breaker" kind="BREAKER" retained="true" open="false" node1="1" node2="2"/>
                <iidm:switch id="Tr1022-4022_disconnector2" kind="DISCONNECTOR" retained="true" open="false" node1="0" node2="3"/>
                <iidm:switch id="Tr1022-4022_breaker2" kind="BREAKER" retained="true" open="false" node1="3" node2="4"/>
                <iidm:switch id="Tr1022-g5_disconnector1" kind="DISCONNECTOR" retained="true" open="false" node1="0" node2="5"/>
                <iidm:switch id="Tr1022-g5_breaker1" kind="BREAKER" retained="true" open="false" node1="5" node2="6"/>
                <iidm:switch id="Tr22-1022_disconnector1" kind="DISCONNECTOR" retained="true" open="false" node1="0" node2="7"/>
                <iidm:switch id="Tr22-1022_breaker1" kind="BREAKER" retained="true" open="false" node1="7" node2="8"/>
                <iidm:switch id="L1021-1022a_disconnector1" kind="DISCONNECTOR" retained="true" open="false" node1="0" node2="9"/>
                <iidm:switch id="L1021-1022a_breaker1" kind="BREAKER" retained="true" open="false" node1="9" node2="10"/>
                <iidm:switch id="L1021-1022b_disconnector1" kind="DISCONNECTOR" retained="true" open="false" node1="0" node2="11"/>
                <iidm:switch id="L1021-1022b_breaker1" kind="BREAKER" retained="true" open="false" node1="11" node2="12"/>
                <iidm:bus v="151.5094869346799" angle="28.194164830853072" nodes="0,1,2,3,4,5,6,7,8,9,10,11,12"/>
            </iidm:nodeBreakerTopology>
            <iidm:shunt id="1022-Cap" sectionCount="1" voltageRegulatorOn="false" node="2" q="-67.914570800327496">
                <iidm:property name="qMax" value="50"/>
                <iidm:shuntLinearModel bPerSection="0.002958579920232296" maximumSectionCount="1"/>
            </iidm:shunt>
        </iidm:voltageLevel>
        <iidm:voltageLevel id="4022_400" nominalV="400" highVoltageLimit="420" topologyKind="NODE_BREAKER">
            <iidm:nodeBreakerTopology>
                <iidm:busbarSection id="4022_401" node="0"/>
                <iidm:switch id="Tr1022-4022_disconnector1" kind="DISCONNECTOR" retained="true" open="false" node1="0" node2="1"/>
                <iidm:switch id="Tr1022-4022_breaker1" kind="BREAKER" retained="true" open="false" node1="1" node2="2"/>
                <iidm:switch id="L4011-4022_disconnector2" kind="DISCONNECTOR" retained="true" open="false" node1="0" node2="3"/>
                <iidm:switch id="L4011-4022_breaker2" kind="BREAKER" retained="true" open="false" node1="3" node2="4"/>
                <iidm:switch id="L4012-4022_disconnector2" kind="DISCONNECTOR" retained="true" open="false" node1="0" node2="5"/>
                <iidm:switch id="L4012-4022_breaker2" kind="BREAKER" retained="true" open="false" node1="5" node2="6"/>
                <iidm:switch id="L4022-4031a_disconnector2" kind="DISCONNECTOR" retained="true" open="false" node1="0" node2="7"/>
                <iidm:switch id="L4022-4031a_breaker2" kind="BREAKER" retained="true" open="false" node1="7" node2="8"/>
                <iidm:switch id="L4022-4031b_disconnector2" kind="DISCONNECTOR" retained="true" open="false" node1="0" node2="9"/>
                <iidm:switch id="L4022-4031b_breaker2" kind="BREAKER" retained="true" open="false" node1="9" node2="10"/>
                <iidm:bus v="445.86899090258834" angle="27.849597521434177" nodes="0,1,2,3,4,5,6,7,8,9,10"/>
            </iidm:nodeBreakerTopology>
        </iidm:voltageLevel>
        <iidm:voltageLevel id="B22___20" nominalV="20" highVoltageLimit="21" topologyKind="NODE_BREAKER">
            <iidm:nodeBreakerTopology>
                <iidm:busbarSection id="B22___21" node="0"/>
                <iidm:switch id="22_1_disconnector" kind="DISCONNECTOR" retained="true" open="false" node1="0" node2="1"/>
                <iidm:switch id="22_1_breaker" kind="BREAKER" retained="true" open="false" node1="1" node2="2"/>
                <iidm:switch id="Tr22-1022_disconnector2" kind="DISCONNECTOR" retained="true" open="false" node1="0" node2="3"/>
                <iidm:switch id="Tr22-1022_breaker2" kind="BREAKER" retained="true" open="false" node1="3" node2="4"/>
                <iidm:bus v="20.519487707369109" angle="25.582471555954438" nodes="0,1,2,3,4"/>
            </iidm:nodeBreakerTopology>
            <iidm:load id="22_1" loadType="UNDEFINED" p0="280.01199340820312" q0="79.90679931640625" node="2" p="272.42788828820767" q="77.746688058925301"/>
        </iidm:voltageLevel>
        <iidm:voltageLevel id="BG05__15" nominalV="15" highVoltageLimit="15.750001907348633" topologyKind="NODE_BREAKER">
            <iidm:nodeBreakerTopology>
                <iidm:busbarSection id="BG05__11" node="0"/>
                <iidm:switch id="g05_disconnector" kind="DISCONNECTOR" retained="true" open="false" node1="0" node2="1"/>
                <iidm:switch id="g05_breaker" kind="BREAKER" retained="true" open="false" node1="1" node2="2"/>
                <iidm:switch id="Tr1022-g5_disconnector2" kind="DISCONNECTOR" retained="true" open="false" node1="0" node2="3"/>
                <iidm:switch id="Tr1022-g5_breaker2" kind="BREAKER" retained="true" open="false" node1="3" node2="4"/>
                <iidm:bus v="15.628504827072643" angle="31.966149116463782" nodes="0,1,2,3,4"/>
            </iidm:nodeBreakerTopology>
            <iidm:generator id="g05" energySource="HYDRO" minP="0" maxP="9999" voltageRegulatorOn="true" targetP="200" targetV="15.440999984741211" targetQ="60.0614013671875" node="2" p="-126.79890434602743" q="114.00976938972973">
                <iidm:property name="genreCvg" value="AUTRE"/>
                <iidm:reactiveCapabilityCurve>
                    <iidm:point p="0" minQ="-250" maxQ="250"/>
                    <iidm:point p="9999" minQ="-250" maxQ="250"/>
                </iidm:reactiveCapabilityCurve>
            </iidm:generator>
        </iidm:voltageLevel>
        <iidm:twoWindingsTransformer id="Tr1022-4022" r="0" x="2.0280842781066895" g="0" b="0" ratedU1="400" ratedU2="130" node1="2" voltageLevelId1="4022_400" node2="4" voltageLevelId2="1022_130" p1="-70.00198440274086" q1="330.9530179160588" p2="70.001984402740959" q2="-321.39404635091091">
            <iidm:ratioTapChanger lowTapPosition="0" tapPosition="3" loadTapChangingCapabilities="false">
                <iidm:step r="0" x="0" g="0" b="0" rho="1.1111111640930176"/>
                <iidm:step r="0" x="0" g="0" b="0" rho="1.0989010334014893"/>
                <iidm:step r="0" x="0" g="0" b="0" rho="1.0869565010070801"/>
                <iidm:step r="0" x="0" g="0" b="0" rho="1.0752688646316528"/>
                <iidm:step r="0" x="0" g="0" b="0" rho="1.063829779624939"/>
                <iidm:step r="0" x="0" g="0" b="0" rho="1.0526316165924072"/>
                <iidm:step r="0" x="0" g="0" b="0" rho="1.0416667461395264"/>
                <iidm:step r="0" x="0" g="0" b="0" rho="1.0309277772903442"/>
                <iidm:step r="0" x="0" g="0" b="0" rho="1.0204081535339355"/>
                <iidm:step r="0" x="0" g="0" b="0" rho="1.0101009607315063"/>
                <iidm:step r="0" x="0" g="0" b="0" rho="1"/>
                <iidm:step r="0" x="0" g="0" b="0" rho="0.99009901285171509"/>
                <iidm:step r="0" x="0" g="0" b="0" rho="0.98039215803146362"/>
                <iidm:step r="0" x="0" g="0" b="0" rho="0.97087383270263672"/>
                <iidm:step r="0" x="0" g="0" b="0" rho="0.96153849363327026"/>
                <iidm:step r="0" x="0" g="0" b="0" rho="0.95238101482391357"/>
                <iidm:step r="0" x="0" g="0" b="0" rho="0.94339627027511597"/>
                <iidm:step r="0" x="0" g="0" b="0" rho="0.93457937240600586"/>
                <iidm:step r="0" x="0" g="0" b="0" rho="0.92592591047286987"/>
                <iidm:step r="0" x="0" g="0" b="0" rho="0.91743117570877075"/>
                <iidm:step r="0" x="0" g="0" b="0" rho="0.90909087657928467"/>
            </iidm:ratioTapChanger>
            <iidm:currentLimits1 permanentLimit="3700.820068359375"/>
            <iidm:currentLimits2 permanentLimit="3700.820068359375"/>
        </iidm:twoWindingsTransformer>
        <iidm:twoWindingsTransformer id="Tr1022-g5" r="0" x="0.13500003516674042" g="0" b="0" ratedU1="130" ratedU2="15" node1="6" voltageLevelId1="1022_130" node2="4" voltageLevelId2="BG05__15" p1="-126.7989043479715" q1="130.08053297217938" p2="126.79890434797159" q2="-114.00976938972963">
            <iidm:ratioTapChanger lowTapPosition="0" tapPosition="10" loadTapChangingCapabilities="false">
                <iidm:step r="0" x="0" g="0" b="0" rho="1.0526316165924072"/>
                <iidm:step r="0" x="0" g="0" b="0" rho="1.0416667461395264"/>
                <iidm:step r="0" x="0" g="0" b="0" rho="1.0309277772903442"/>
                <iidm:step r="0" x="0" g="0" b="0" rho="1.0204081535339355"/>
                <iidm:step r="0" x="0" g="0" b="0" rho="1.0101009607315063"/>
                <iidm:step r="0" x="0" g="0" b="0" rho="1"/>
                <iidm:step r="0" x="0" g="0" b="0" rho="0.99009901285171509"/>
                <iidm:step r="0" x="0" g="0" b="0" rho="0.98039215803146362"/>
                <iidm:step r="0" x="0" g="0" b="0" rho="0.97087383270263672"/>
                <iidm:step r="0" x="0" g="0" b="0" rho="0.96153849363327026"/>
                <iidm:step r="0" x="0" g="0" b="0" rho="0.95238101482391357"/>
            </iidm:ratioTapChanger>
            <iidm:currentLimits1 permanentLimit="9622.5"/>
            <iidm:currentLimits2 permanentLimit="9622.5"/>
        </iidm:twoWindingsTransformer>
        <iidm:twoWindingsTransformer id="Tr22-1022" r="0" x="0.071428664028644562" g="0" b="0" ratedU1="130" ratedU2="20" node1="8" voltageLevelId1="1022_130" node2="4" voltageLevelId2="B22___20" p1="272.42788828924796" q1="91.362601482614025" p2="-272.42788828924824" q2="-77.746688057889529">
            <iidm:ratioTapChanger lowTapPosition="0" tapPosition="32" targetDeadband="0" loadTapChangingCapabilities="true" regulating="true" targetV="20">
                <iidm:terminalRef id="Tr22-1022" side="TWO"/>
                <iidm:step r="0" x="0" g="0" b="0" rho="1.25"/>
                <iidm:step r="0" x="0" g="0" b="0" rho="1.2345678806304932"/>
                <iidm:step r="0" x="0" g="0" b="0" rho="1.2195122241973877"/>
                <iidm:step r="0" x="0" g="0" b="0" rho="1.2048193216323853"/>
                <iidm:step r="0" x="0" g="0" b="0" rho="1.1904761791229248"/>
                <iidm:step r="0" x="0" g="0" b="0" rho="1.1764705181121826"/>
                <iidm:step r="0" x="0" g="0" b="0" rho="1.1627906560897827"/>
                <iidm:step r="0" x="0" g="0" b="0" rho="1.1494252681732178"/>
                <iidm:step r="0" x="0" g="0" b="0" rho="1.1363636255264282"/>
                <iidm:step r="0" x="0" g="0" b="0" rho="1.1235954761505127"/>
                <iidm:step r="0" x="0" g="0" b="0" rho="1.1111111640930176"/>
                <iidm:step r="0" x="0" g="0" b="0" rho="1.0989010334014893"/>
                <iidm:step r="0" x="0" g="0" b="0" rho="1.0869565010070801"/>
                <iidm:step r="0" x="0" g="0" b="0" rho="1.0752688646316528"/>
                <iidm:step r="0" x="0" g="0" b="0" rho="1.063829779624939"/>
                <iidm:step r="0" x="0" g="0" b="0" rho="1.0526316165924072"/>
                <iidm:step r="0" x="0" g="0" b="0" rho="1.0416667461395264"/>
                <iidm:step r="0" x="0" g="0" b="0" rho="1.0309277772903442"/>
                <iidm:step r="0" x="0" g="0" b="0" rho="1.0204081535339355"/>
                <iidm:step r="0" x="0" g="0" b="0" rho="1.0101009607315063"/>
                <iidm:step r="0" x="0" g="0" b="0" rho="1"/>
                <iidm:step r="0" x="0" g="0" b="0" rho="0.99009901285171509"/>
                <iidm:step r="0" x="0" g="0" b="0" rho="0.98039215803146362"/>
                <iidm:step r="0" x="0" g="0" b="0" rho="0.97087383270263672"/>
                <iidm:step r="0" x="0" g="0" b="0" rho="0.96153849363327026"/>
                <iidm:step r="0" x="0" g="0" b="0" rho="0.95238101482391357"/>
                <iidm:step r="0" x="0" g="0" b="0" rho="0.94339627027511597"/>
                <iidm:step r="0" x="0" g="0" b="0" rho="0.93457937240600586"/>
                <iidm:step r="0" x="0" g="0" b="0" rho="0.92592591047286987"/>
                <iidm:step r="0" x="0" g="0" b="0" rho="0.91743117570877075"/>
                <iidm:step r="0" x="0" g="0" b="0" rho="0.90909087657928467"/>
                <iidm:step r="0" x="0" g="0" b="0" rho="0.90090090036392212"/>
                <iidm:step r="0" x="0" g="0" b="0" rho="0.8928571343421936"/>
            </iidm:ratioTapChanger>
            <iidm:currentLimits1 permanentLimit="16165.7998046875"/>
            <iidm:currentLimits2 permanentLimit="16165.7998046875"/>
        </iidm:twoWindingsTransformer>
    </iidm:substation>
    <iidm:substation id="S_1041" country="FR" tso="RTE">
        <iidm:voltageLevel id="1041_130" nominalV="130" highVoltageLimit="136.5" topologyKind="NODE_BREAKER">
            <iidm:nodeBreakerTopology>
                <iidm:busbarSection id="1041_131" node="0"/>
                <iidm:switch id="1041-Cap_disconnector" kind="DISCONNECTOR" retained="true" open="false" node1="0" node2="1"/>
                <iidm:switch id="1041-Cap_breaker" kind="BREAKER" retained="true" open="false" node1="1" node2="2"/>
                <iidm:switch id="Tr1-1041_disconnector1" kind="DISCONNECTOR" retained="true" open="false" node1="0" node2="3"/>
                <iidm:switch id="Tr1-1041_breaker1" kind="BREAKER" retained="true" open="false" node1="3" node2="4"/>
                <iidm:switch id="L1041-1043a_disconnector1" kind="DISCONNECTOR" retained="true" open="false" node1="0" node2="5"/>
                <iidm:switch id="L1041-1043a_breaker1" kind="BREAKER" retained="true" open="false" node1="5" node2="6"/>
                <iidm:switch id="L1041-1043b_disconnector1" kind="DISCONNECTOR" retained="true" open="false" node1="0" node2="7"/>
                <iidm:switch id="L1041-1043b_breaker1" kind="BREAKER" retained="true" open="false" node1="7" node2="8"/>
...